73
E (MM, N=25768) = -1310.268944
 C     0.741226     7.921924     1.216239 
 O     1.806641     8.447343     1.853471 
 O    -0.265673     8.811585     1.325310 
 O     0.696768     6.846732     0.649173 
 C    -1.512914     8.405057     0.701672 
 H    -2.057020     9.348200     0.561610 
 H    -1.290022     7.962084    -0.278789 
 C    -2.284669     7.440137     1.580795 
 H    -1.732559     6.498923     1.701488 
 H    -3.255002     7.211179     1.116190 
 H    -2.471734     7.876479     2.571627 
 C     3.053370     7.727963     1.658642 
 H     3.699092     8.096475     2.466373 
 H     2.867732     6.654233     1.799544 
 C     3.650038     8.010544     0.293480 
 H     3.798607     9.089153     0.146280 
 H     2.998174     7.626148    -0.501875 
 H     4.627087     7.512941     0.206327 
 C    -1.587585     2.403568     0.587686 
 O    -2.503047     2.034049     1.505631 
 O    -1.473567     1.387806    -0.291214 
 O    -0.978646     3.456132     0.558008 
 C    -2.228016     0.194449     0.050114 
 H    -2.052011     0.070501     1.126611 
 H    -3.295036     0.388239    -0.126308 
 C    -1.748210    -1.009820    -0.736686 
 H    -1.941576    -0.874772    -1.808902 
 H    -2.286124    -1.908951    -0.401963 
 H    -0.672836    -1.174961    -0.583600 
 C    -2.918100     3.087292     2.415691 
 H    -3.343167     2.544711     3.270157 
 H    -2.028571     3.643901     2.741477 
 C    -3.939386     4.005808     1.773169 
 H    -4.809316     3.436790     1.417390 
 H    -3.495629     4.548674     0.928389 
 H    -4.288345     4.744276     2.509864 
 C    -0.724002     5.023724    -2.903051 
 O     0.106148     5.272757    -3.935560 
 O    -1.928120     4.717507    -3.426088 
 O    -0.439851     5.067156    -1.721125 
 C    -3.010547     4.628534    -2.461600 
 H    -3.780643     4.045217    -2.983023 
 H    -2.657782     4.067917    -1.584973 
 C    -3.519768     6.002197    -2.070095 
 H    -2.742043     6.567735    -1.540390 
 H    -4.385313     5.898800    -1.399299 
 H    -3.836456     6.569947    -2.955818 
 C    -0.460357     5.027427    -5.250354 
 H    -0.993718     4.074993    -5.133802 
 H    -1.180880     5.824713    -5.479246 
 C     0.618745     4.937121    -6.311916 
 H     1.355253     4.162619    -6.057276 
 H     1.134366     5.899876    -6.423783 
 H     0.165227     4.676709    -7.279560 
 C     1.131962     4.710129     3.472908 
 O     1.249098     4.499619     2.146558 
 O    -0.067054     5.290812     3.678834 
 O     1.953983     4.428850     4.324226 
 C    -0.424267     5.481258     5.073800 
 H    -0.132062     4.537144     5.551767 
 H     0.179997     6.301794     5.484647 
 C    -1.907312     5.753474     5.235073 
 H    -2.180634     6.705614     4.761786 
 H    -2.157755     5.817783     6.304170 
 H    -2.504737     4.946246     4.789423 
 C     2.398466     3.704246     1.751421 
 H     2.541766     3.956344     0.692601 
 H     3.272942     4.035774     2.328129 
 C     2.140474     2.222245     1.942849 
 H     1.243594     1.906217     1.392512 
 H     2.010714     1.985376     3.006960 
 H     2.997613     1.645499     1.565351 
Li     0.271753     4.959474     0.137306 
73
E (MM, N=3449) = -1308.263049
 C     4.049796    -0.717001     1.244402 
 O     4.686544    -0.955690     2.408369 
 O     3.705281    -1.913274     0.727218 
 O     3.827736     0.373304     0.752974 
 C     3.199101    -1.869805    -0.633550 
 H     2.668317    -2.823964    -0.747729 
 H     2.483368    -1.040485    -0.718203 
 C     4.324561    -1.732642    -1.640555 
 H     4.837350    -0.769379    -1.520357 
 H     3.916074    -1.778538    -2.660780 
 H     5.054942    -2.545276    -1.525208 
 C     5.245488     0.219610     3.053388 
 H     6.017026    -0.187552     3.719823 
 H     5.718507     0.851193     2.288818 
 C     4.188163     0.985243     3.825011 
 H     3.694708     0.337103     4.562271 
 H     3.431154     1.394901     3.143546 
 H     4.656000     1.823732     4.361568 
 C     3.103699     5.450150    -1.222980 
 O     4.295309     5.368576    -0.597960 
 O     3.354616     5.608718    -2.537945 
 O     2.007643     5.391631    -0.698751 
 C     2.180155     5.591286    -3.392424 
 H     1.580203     4.760546    -2.998576 
 H     1.631882     6.534060    -3.259059 
 C     2.553814     5.370787    -4.845452 
 H     3.143321     6.214807    -5.226751 
 H     1.641243     5.287487    -5.453812 
 H     3.133084     4.444894    -4.965057 
 C     4.221524     5.216972     0.844735 
 H     5.202327     5.562718     1.196408 
 H     3.438387     5.883993     1.230727 
 C     3.962886     3.775761     1.239134 
 H     4.729850     3.110698     0.818905 
 H     2.974473     3.449473     0.890058 
 H     3.987748     3.681629     2.334738 
 C     0.559782     1.628817     2.189669 
 O     0.696317     1.255054     3.477652 
 O     0.444426     0.501935     1.458871 
 O     0.543673     2.769031     1.766313 
 C     0.621326    -0.732402     2.203800 
 H     0.871608    -1.472128     1.432209 
 H     1.473436    -0.613870     2.887225 
 C    -0.639794    -1.113370     2.954780 
 H    -0.869556    -0.369998     3.729302 
 H    -0.498291    -2.087404     3.445761 
 H    -1.494781    -1.194174     2.269505 
 C     0.852191     2.349266     4.420095 
 H     1.269813     1.868984     5.314584 
 H     1.581287     3.064139     4.014404 
 C    -0.474738     3.021470     4.714940 
 H    -1.209236     2.293256     5.085554 
 H    -0.872836     3.505950     3.813788 
 H    -0.335391     3.793415     5.485985 
 C    -0.778907     2.584315    -1.214099 
 O     0.465681     2.783409    -1.692222 
 O    -1.233602     3.776959    -0.780407 
 O    -1.379086     1.526854    -1.180354 
 C    -2.618040     3.782054    -0.340971 
 H    -2.942434     4.818031    -0.504398 
 H    -3.197327     3.110553    -0.989604 
 C    -2.739438     3.382013     1.116685 
 H    -2.422096     2.340974     1.260939 
 H    -3.787759     3.468476     1.438205 
 H    -2.128598     4.035457     1.754666 
 C     1.168386     1.577104    -2.093262 
 H     0.948844     0.864274    -1.287742 
 H     0.734330     1.211304    -3.034005 
 C     2.658445     1.822400    -2.231413 
 H     3.078025     2.222444    -1.298110 
 H     2.861374     2.527989    -3.047649 
 H     3.169640     0.876026    -2.461378 
Li     0.271753     4.959474     0.137306 
73
E (MM, N=1835) = -1293.122614
 C     0.798569     7.893557    -0.492064 
 O     1.621750     8.778830    -1.088641 
 O    -0.367367     8.529042    -0.259707 
 O     1.058993     6.738057    -0.215340 
 C    -0.367165     9.946092    -0.578721 
 H    -1.203714    10.348168     0.007546 
 H     0.574101    10.388194    -0.224074 
 C    -0.562181    10.180917    -2.064102 
 H     0.287439     9.783338    -2.634500 
 H    -0.632769    11.260572    -2.262061 
 H    -1.486876     9.704753    -2.418141 
 C     2.974466     8.301035    -1.315950 
 H     3.232778     7.786870    -0.381017 
 H     2.959127     7.575150    -2.140611 
 C     3.926297     9.445459    -1.605505 
 H     3.908558    10.185104    -0.793257 
 H     3.661198     9.941361    -2.548416 
 H     4.952102     9.059420    -1.697845 
 C    -1.795162     4.576400    -2.270639 
 O    -2.655614     3.540065    -2.324223 
 O    -1.954159     5.284192    -3.406856 
 O    -1.020580     4.826042    -1.366604 
 C    -1.030538     6.392916    -3.572546 
 H    -1.001185     6.861793    -2.580337 
 H    -0.037273     5.992061    -3.817395 
 C    -1.511685     7.362503    -4.634587 
 H    -1.524458     6.881788    -5.621514 
 H    -0.832075     8.226010    -4.682691 
 H    -2.520224     7.730657    -4.401247 
 C    -2.783011     2.784837    -1.090044 
 H    -3.220890     1.830152    -1.409461 
 H    -1.779678     2.607829    -0.678703 
 C    -3.671133     3.500130    -0.090480 
 H    -4.660345     3.705941    -0.522034 
 H    -3.214026     4.446483     0.226924 
 H    -3.808094     2.869823     0.800465 
 C    -4.318764    -0.252587     0.639893 
 O    -4.940682    -1.320484     1.178459 
 O    -5.160543     0.281880    -0.267295 
 O    -3.206630     0.152732     0.919989 
 C    -6.379357    -0.475284    -0.493113 
 H    -6.724355    -0.131746    -1.477057 
 H    -6.127327    -1.543405    -0.546116 
 C    -7.409564    -0.204073     0.586077 
 H    -7.054145    -0.563338     1.560696 
 H    -8.344431    -0.731711     0.346394 
 H    -7.629007     0.870120     0.657419 
 C    -4.130788    -2.103236     2.095610 
 H    -3.157535    -2.174254     1.592693 
 H    -4.017803    -1.542926     3.033958 
 C    -4.734733    -3.472627     2.339640 
 H    -4.878302    -4.012008     1.393283 
 H    -5.701281    -3.384456     2.852757 
 H    -4.061740    -4.065970     2.975921 
 C    -1.134908     3.786593     2.630657 
 O    -0.779259     2.682134     1.944419 
 O    -1.037231     4.830022     1.782747 
 O    -1.479370     3.832963     3.796322 
 C    -1.503854     6.098257     2.315328 
 H    -1.764943     6.679310     1.421238 
 H    -2.408539     5.919475     2.912650 
 C    -0.428660     6.785962     3.134200 
 H    -0.187457     6.198124     4.029489 
 H    -0.786045     7.774189     3.459025 
 H     0.485069     6.928176     2.540895 
 C    -0.703851     1.466582     2.735965 
 H    -0.196028     1.782772     3.656470 
 H    -1.724179     1.136908     2.975664 
 C     0.071759     0.381412     2.014601 
 H     1.078031     0.731366     1.746113 
 H    -0.454647     0.068925     1.103269 
 H     0.175330    -0.496724     2.668802 
Li     0.271753     4.959474     0.137306 
73
E (MM, N=25183) = -1285.701039
 C     0.392431     6.760090    -2.466855 
 O     1.371065     7.338069    -3.191739 
 O    -0.778457     7.080275    -3.053147 
 O     0.538510     6.077637    -1.470614 
 C    -0.673929     8.013216    -4.161522 
 H    -1.683471     8.436177    -4.245875 
 H     0.034207     8.807924    -3.889138 
 C    -0.253120     7.312895    -5.439020 
 H     0.761842     6.905819    -5.341970 
 H    -0.256427     8.030286    -6.272787 
 H    -0.945756     6.496187    -5.684741 
 C     2.718997     6.927870    -2.838732 
 H     3.354868     7.709138    -3.275168 
 H     2.818344     6.943993    -1.744620 
 C     3.048679     5.559441    -3.402864 
 H     2.911691     5.541417    -4.492839 
 H     2.412337     4.788899    -2.948319 
 H     4.097472     5.311315    -3.183106 
 C     2.937406     5.557531     1.777509 
 O     3.288951     6.814805     2.113541 
 O     3.960915     4.752177     2.125463 
 O     1.892613     5.214151     1.257821 
 C     3.845872     3.380184     1.662647 
 H     2.796266     3.123790     1.857010 
 H     4.034354     3.355126     0.580493 
 C     4.792975     2.460986     2.409375 
 H     5.837331     2.723429     2.195550 
 H     4.628508     1.421384     2.089995 
 H     4.622603     2.519275     3.493217 
 C     2.223524     7.796855     2.012345 
 H     2.752216     8.758917     2.001858 
 H     1.702035     7.655423     1.055654 
 C     1.264991     7.698922     3.183308 
 H     1.799530     7.804854     4.137343 
 H     0.736751     6.736566     3.172749 
 H     0.516085     8.501757     3.116793 
 C    -1.878837     3.091289     1.464790 
 O    -3.053991     3.059099     0.805081 
 O    -2.021347     2.329815     2.568006 
 O    -0.877649     3.694313     1.127798 
 C    -0.808479     2.144084     3.345343 
 H    -0.036912     1.953340     2.588052 
 H    -0.579852     3.080337     3.872952 
 C    -0.940994     0.983620     4.312449 
 H    -1.707912     1.194879     5.069075 
 H     0.015934     0.822067     4.830151 
 H    -1.205513     0.058948     3.781272 
 C    -4.046877     2.159055     1.365344 
 H    -3.475498     1.252773     1.604860 
 H    -4.440224     2.599252     2.292013 
 C    -5.158807     1.872909     0.374756 
 H    -4.753912     1.467212    -0.562584 
 H    -5.726902     2.786236     0.154805 
 H    -5.851878     1.132208     0.800013 
 C     5.723464     6.658171    -0.683697 
 O     5.614478     7.719675    -1.507452 
 O     6.880874     6.797536    -0.006781 
 O     4.926847     5.745740    -0.572115 
 C     7.277328     5.638897     0.774359 
 H     8.030437     6.034306     1.468382 
 H     6.407718     5.281381     1.342839 
 C     7.849003     4.544689    -0.106225 
 H     7.080987     4.152780    -0.785810 
 H     8.207953     3.714983     0.520329 
 H     8.694968     4.919983    -0.698367 
 C     6.649637     8.726387    -1.350057 
 H     6.755319     8.827634    -0.262046 
 H     7.586435     8.339550    -1.774296 
 C     6.251026    10.038622    -1.997111 
 H     5.295157    10.400149    -1.593687 
 H     6.160681     9.922952    -3.085107 
 H     7.019788    10.799121    -1.795926 
Li     0.271753     4.959474     0.137306 
73
E (MM, N=24468) = -1278.544157
 C     0.362118     7.835169    -1.180493 
 O    -0.259689     8.079680    -2.351309 
 O     0.906651     8.997752    -0.769251 
 O     0.420817     6.766040    -0.603348 
 C     1.657140     8.917860     0.471790 
 H     1.678169     9.953970     0.834034 
 H     1.099268     8.292894     1.182709 
 C     3.055405     8.378131     0.241399 
 H     3.016990     7.338577    -0.109497 
 H     3.621034     8.400892     1.184464 
 H     3.593775     8.987127    -0.497801 
 C    -0.280810     9.475006    -2.754319 
 H    -0.524823    10.012787    -1.828879 
 H     0.725565     9.761455    -3.089531 
 C    -1.314710     9.725269    -3.835036 
 H    -2.311961     9.402495    -3.505728 
 H    -1.050207     9.189972    -4.756324 
 H    -1.358389    10.800268    -4.063725 
 C     2.667862     8.419314     4.290001 
 O     2.590128     8.872285     5.557287 
 O     3.770758     8.965242     3.739711 
 O     1.888937     7.660322     3.745221 
 C     4.455765     9.936429     4.574792 
 H     3.642393    10.540315     4.997800 
 H     4.974775     9.403723     5.383534 
 C     5.418151    10.784010     3.765501 
 H     6.230730    10.167544     3.359347 
 H     5.863114    11.556377     4.409927 
 H     4.898314    11.284431     2.936957 
 C     1.416485     8.435629     6.293283 
 H     1.321489     9.174296     7.099841 
 H     0.540755     8.500236     5.632879 
 C     1.593820     7.032059     6.839245 
 H     2.491800     6.966973     7.468953 
 H     1.675881     6.304972     6.020778 
 H     0.722170     6.760632     7.452746 
 C     0.969059     2.706530     2.043744 
 O    -0.208559     2.122576     2.342832 
 O     1.898997     2.164396     2.855251 
 O     1.157254     3.562138     1.199886 
 C     3.263739     2.585434     2.590665 
 H     3.341079     2.555463     1.495993 
 H     3.388106     3.620336     2.938112 
 C     4.268094     1.658230     3.247244 
 H     4.185244     1.708482     4.340810 
 H     5.288179     1.959045     2.966594 
 H     4.113667     0.620009     2.922613 
 C    -0.128321     1.040700     3.308702 
 H    -1.050171     0.468724     3.140699 
 H     0.740715     0.413758     3.065943 
 C    -0.049116     1.568305     4.728171 
 H    -0.902493     2.223457     4.951016 
 H     0.882818     2.127693     4.882643 
 H    -0.065711     0.727475     5.437084 
 C    -2.497335     4.855768     1.387469 
 O    -1.682238     4.234055     0.512066 
 O    -1.714196     5.415615     2.331134 
 O    -3.711697     4.902791     1.335594 
 C    -2.415641     6.240291     3.299475 
 H    -3.118595     6.822511     2.689504 
 H    -2.977070     5.585859     3.980449 
 C    -1.459472     7.138386     4.060197 
 H    -0.771414     6.541599     4.673139 
 H    -2.027441     7.801344     4.729320 
 H    -0.875949     7.763380     3.370256 
 C    -2.360223     3.462734    -0.515162 
 H    -1.637972     2.677837    -0.774929 
 H    -3.257854     3.003950    -0.078141 
 C    -2.707902     4.321459    -1.715680 
 H    -1.810306     4.805554    -2.124472 
 H    -3.438874     5.093425    -1.441771 
 H    -3.150511     3.694447    -2.503577 
Li     0.271753     4.959474     0.137306 
73
E (MM, N=77) = -1265.976420
 C    -0.485046     4.053440     3.009636 
 O    -1.206702     4.418353     4.088195 
 O     0.103127     2.876850     3.304467 
 O    -0.383637     4.670156     1.966105 
 C    -0.087601     2.421667     4.670568 
 H     0.061328     3.327174     5.273117 
 H    -1.122810     2.071858     4.785394 
 C     0.905769     1.336459     5.038090 
 H     0.736185     0.434940     4.434947 
 H     0.785079     1.067601     6.097796 
 H     1.937637     1.681703     4.885805 
 C    -2.085821     5.555917     3.881088 
 H    -2.312781     5.901954     4.897915 
 H    -1.531669     6.337746     3.343621 
 C    -3.343162     5.157082     3.133054 
 H    -3.872148     4.349794     3.658028 
 H    -3.100075     4.824554     2.115404 
 H    -4.019599     6.021235     3.058884 
 C    -2.313873     3.470883     8.287254 
 O    -2.122168     2.470243     9.169983 
 O    -3.306096     4.243971     8.772091 
 O    -1.705617     3.643790     7.248165 
 C    -3.801866     5.253062     7.852447 
 H    -4.349281     5.951878     8.498343 
 H    -2.944782     5.769246     7.398387 
 C    -4.703847     4.645893     6.795419 
 H    -4.139135     3.958865     6.151704 
 H    -5.121500     5.442964     6.162907 
 H    -5.538062     4.100757     7.258073 
 C    -1.167469     1.458588     8.751771 
 H    -1.425741     0.584014     9.363003 
 H    -1.338955     1.227497     7.691393 
 C     0.260235     1.908116     8.994912 
 H     0.413682     2.172182    10.050307 
 H     0.505778     2.775620     8.368475 
 H     0.953500     1.093391     8.739111 
 C     0.296580     4.646777    -3.011056 
 O    -0.731172     4.004099    -3.600911 
 O     1.111600     5.079209    -3.993900 
 O     0.458209     4.806541    -1.816096 
 C     2.387246     5.608336    -3.543843 
 H     2.742032     6.201485    -4.396773 
 H     2.212013     6.270832    -2.685006 
 C     3.357447     4.496503    -3.194457 
 H     2.993692     3.920603    -2.333470 
 H     4.334561     4.927170    -2.930638 
 H     3.499124     3.817712    -4.046693 
 C    -0.741692     4.067264    -5.052013 
 H    -0.490794     5.113146    -5.271947 
 H     0.049930     3.411618    -5.440181 
 C    -2.097873     3.687947    -5.614528 
 H    -2.888628     4.324204    -5.193790 
 H    -2.328362     2.637066    -5.395896 
 H    -2.095212     3.818229    -6.706704 
 C     2.842159     4.212323    -7.732482 
 O     2.187011     3.868762    -8.859419 
 O     4.060888     4.655494    -8.100635 
 O     2.413935     4.136655    -6.596490 
 C     4.359293     4.523274    -9.516005 
 H     5.455699     4.559025    -9.558480 
 H     4.011623     3.539482    -9.860228 
 C     3.732156     5.643708   -10.322763 
 H     2.636644     5.586966   -10.279065 
 H     4.038105     5.557747   -11.375775 
 H     4.056252     6.624733    -9.949015 
 C     0.890895     3.247575    -8.649641 
 H     1.066842     2.542461    -7.826812 
 H     0.177939     4.018050    -8.325183 
 C     0.406331     2.538189    -9.899241 
 H     1.141270     1.795076   -10.238040 
 H     0.224590     3.257929   -10.708081 
 H    -0.538217     2.016471    -9.686010 
Li     0.271753     4.959474     0.137306 
73
E (MM, N=13510) = -1265.836693
 C     3.557641    11.380127    -1.867826 
 O     4.838377    11.369414    -1.447303 
 O     3.320288    12.600905    -2.388019 
 O     2.764867    10.460695    -1.792112 
 C     1.927952    12.874778    -2.698173 
 H     1.973740    13.737838    -3.375092 
 H     1.508594    12.011731    -3.233428 
 C     1.131474    13.188239    -1.446415 
 H     1.085922    12.312311    -0.786148 
 H     0.102827    13.463960    -1.721534 
 H     1.578234    14.028804    -0.897788 
 C     5.342835    10.065849    -1.052287 
 H     6.234781    10.298243    -0.455952 
 H     4.594185     9.575297    -0.415033 
 C     5.684224     9.213506    -2.259140 
 H     6.405557     9.726577    -2.909965 
 H     4.780746     8.980944    -2.837862 
 H     6.132558     8.265332    -1.927794 
 C    -1.483107     3.222220     2.105361 
 O    -2.371604     2.353718     1.582373 
 O    -1.652209     3.206866     3.442674 
 O    -0.679515     3.893775     1.486627 
 C    -0.929579     4.240185     4.163685 
 H    -0.899641     3.868908     5.196373 
 H     0.093053     4.299303     3.766271 
 C    -1.635861     5.578923     4.071609 
 H    -1.647214     5.941030     3.035257 
 H    -1.106082     6.320113     4.687888 
 H    -2.669259     5.502853     4.436901 
 C    -3.129412     1.590072     2.558267 
 H    -2.378353     1.294978     3.302592 
 H    -3.869594     2.252413     3.027997 
 C    -3.792624     0.382440     1.924779 
 H    -3.050322    -0.255728     1.425916 
 H    -4.548035     0.694673     1.191879 
 H    -4.294100    -0.214141     2.700951 
 C    -0.999096     7.953863     0.079757 
 O    -0.008050     8.304878     0.923472 
 O    -1.362143     6.694494     0.395073 
 O    -1.476271     8.644050    -0.800882 
 C    -2.511849     6.187488    -0.333570 
 H    -2.944030     5.439454     0.343817 
 H    -3.228533     7.007645    -0.478199 
 C    -2.102771     5.571929    -1.657682 
 H    -1.683361     6.334538    -2.326860 
 H    -2.982935     5.131570    -2.148827 
 H    -1.358846     4.777488    -1.507429 
 C     0.599668     9.595859     0.651729 
 H     0.717345     9.607067    -0.439699 
 H    -0.101171    10.386839     0.952375 
 C     1.933144     9.741768     1.358896 
 H     2.615472     8.926714     1.080951 
 H     1.796756     9.739982     2.448240 
 H     2.401052    10.695442     1.073597 
 C     2.624686     6.705067    -1.116599 
 O     3.782459     6.946160    -0.469549 
 O     2.638767     7.442811    -2.244772 
 O     1.734300     5.961320    -0.751045 
 C     1.517045     7.216144    -3.139290 
 H     0.688338     7.757935    -2.665060 
 H     1.743255     7.672702    -4.112734 
 C     1.209636     5.737980    -3.280927 
 H     2.042802     5.213310    -3.766553 
 H     0.311811     5.604467    -3.902146 
 H     1.020512     5.281177    -2.299755 
 C     4.000029     6.139397     0.718557 
 H     3.025247     6.145901     1.223480 
 H     4.245258     5.113928     0.409547 
 C     5.087992     6.726397     1.596793 
 H     4.852915     7.763946     1.871326 
 H     6.057336     6.702136     1.081952 
 H     5.175955     6.136726     2.521119 
Li     0.271753     4.959474     0.137306 
73
E (MM, N=27987) = -1252.713870
 C    -0.620368     2.151511   -10.879996 
 O    -0.122000     3.344251   -11.262409 
 O    -1.027091     1.514356   -11.996171 
 O    -0.689985     1.729361    -9.741347 
 C    -1.791018     0.300740   -11.765190 
 H    -1.748012    -0.224818   -12.728065 
 H    -1.280317    -0.297929   -10.998385 
 C    -3.219326     0.611951   -11.361932 
 H    -3.245296     1.126914   -10.392698 
 H    -3.789789    -0.323800   -11.268296 
 H    -3.711372     1.241168   -12.116328 
 C    -0.045581     3.544365   -12.699041 
 H     0.342583     2.589814   -13.077654 
 H    -1.060300     3.706817   -13.087842 
 C     0.871846     4.699414   -13.050783 
 H     1.874185     4.546779   -12.627516 
 H     0.464047     5.646971   -12.675134 
 H     0.967335     4.776698   -14.143823 
 C    -1.956710     1.716681   -15.332046 
 O    -2.087477     0.377043   -15.406285 
 O    -0.677590     2.008934   -15.641360 
 O    -2.829251     2.512501   -15.040633 
 C     0.186271     0.856384   -15.828898 
 H    -0.086500     0.185728   -15.003668 
 H    -0.063979     0.379048   -16.786361 
 C     1.650921     1.245096   -15.772024 
 H     1.909626     1.906072   -16.609556 
 H     2.276309     0.342939   -15.841521 
 H     1.884910     1.754310   -14.826991 
 C    -3.452417    -0.111421   -15.316071 
 H    -3.336639    -1.166119   -15.034296 
 H    -3.968475     0.428182   -14.510017 
 C    -4.183734     0.037082   -16.636167 
 H    -3.642329    -0.474373   -17.443899 
 H    -4.300991     1.096891   -16.897573 
 H    -5.185884    -0.409197   -16.556419 
 C    -1.342710     6.563119     2.241397 
 O    -1.462030     7.865997     1.916573 
 O    -1.691644     6.443157     3.537966 
 O    -0.986941     5.664317     1.503046 
 C    -1.670945     5.085995     4.055153 
 H    -2.137397     4.493072     3.257623 
 H    -0.625734     4.771618     4.181293 
 C    -2.441421     4.975890     5.356604 
 H    -1.956065     5.564934     6.145738 
 H    -2.470653     3.925533     5.681756 
 H    -3.475121     5.326355     5.231009 
 C    -2.026850     8.707735     2.956887 
 H    -2.394442     9.587691     2.413066 
 H    -2.874583     8.181046     3.416408 
 C    -0.985103     9.085689     3.991993 
 H    -0.124401     9.579059     3.519855 
 H    -0.636515     8.196861     4.533980 
 H    -1.423936     9.781931     4.721720 
 C     2.138389     5.180445     2.640993 
 O     2.341768     4.225904     3.570901 
 O     2.483677     6.358315     3.198342 
 O     1.721519     5.010755     1.510948 
 C     2.448038     7.496705     2.296901 
 H     2.909822     7.117849     1.375808 
 H     1.399411     7.758718     2.099563 
 C     3.214937     8.676619     2.861879 
 H     2.734225     9.050115     3.775494 
 H     3.232742     9.493423     2.125440 
 H     4.252425     8.396538     3.090594 
 C     1.923908     2.890778     3.180225 
 H     0.951691     3.050229     2.695913 
 H     2.639084     2.497566     2.444617 
 C     1.805879     1.972234     4.381008 
 H     1.117084     2.390179     5.128016 
 H     2.787513     1.814309     4.846552 
 H     1.416439     0.994248     4.062092 
Li     0.271753     4.959474     0.137306 
73
E (MM, N=32638) = -1242.101623
 C    -0.158240     3.094050    -2.280955 
 O     0.967762     2.364189    -2.410033 
 O    -1.048191     2.612751    -3.171783 
 O    -0.337602     4.014298    -1.506002 
 C    -2.374255     3.200072    -3.091743 
 H    -2.578034     3.244464    -2.013925 
 H    -2.334461     4.219782    -3.498952 
 C    -3.400970     2.354501    -3.820028 
 H    -3.189468     2.329668    -4.897026 
 H    -4.403181     2.784671    -3.677358 
 H    -3.408925     1.326747    -3.431705 
 C     0.869225     1.242509    -3.327596 
 H     1.688558     0.579052    -3.021480 
 H    -0.092092     0.735971    -3.164808 
 C     1.020805     1.689076    -4.768822 
 H     1.967809     2.226594    -4.915092 
 H     0.188422     2.342034    -5.062184 
 H     1.017184     0.810709    -5.430855 
 C     0.690160     6.769604     2.643059 
 O     0.294235     6.743666     3.931395 
 O     1.750855     7.598337     2.569812 
 O     0.185067     6.159615     1.719818 
 C     2.282818     8.027638     3.851418 
 H     2.900656     8.899931     3.601281 
 H     1.448280     8.342198     4.493141 
 C     3.101561     6.932852     4.507648 
 H     2.467384     6.073345     4.761308 
 H     3.551088     7.313171     5.436685 
 H     3.911579     6.598457     3.844937 
 C    -0.923305     5.992731     4.183367 
 H    -1.590123     6.289234     3.363228 
 H    -0.699888     4.919908     4.103707 
 C    -1.516261     6.334124     5.536654 
 H    -1.702752     7.413521     5.621864 
 H    -0.842848     6.021263     6.345301 
 H    -2.473513     5.807747     5.664811 
 C     1.499437     3.015304     2.238185 
 O     1.603313     3.689858     3.400694 
 O     2.001705     1.782040     2.448000 
 O     1.038865     3.439815     1.195476 
 C     1.859440     0.864214     1.331239 
 H     2.640427     1.181843     0.628133 
 H     2.074702    -0.154733     1.681411 
 C     0.478766     0.954518     0.710660 
 H    -0.288769     0.623087     1.422221 
 H     0.428015     0.304924    -0.175499 
 H     0.256834     1.983644     0.396364 
 C     2.078609     2.903131     4.525395 
 H     1.739982     3.467953     5.403744 
 H     1.581804     1.923314     4.506553 
 C     3.587837     2.757357     4.502777 
 H     4.076440     3.741269     4.484828 
 H     3.908776     2.181139     3.625139 
 H     3.921684     2.223095     5.404408 
 C     0.759083     5.791497     9.651631 
 O     0.349451     6.999894    10.086623 
 O     1.295599     5.149474    10.708605 
 O     0.662660     5.361151     8.518016 
 C     1.682558     3.772204    10.457231 
 H     0.843671     3.364401     9.878308 
 H     2.590647     3.767368     9.838714 
 C     1.891732     3.009220    11.750920 
 H     2.740347     3.422082    12.311879 
 H     2.109131     1.954385    11.527563 
 H     0.991677     3.049618    12.379732 
 C    -0.451043     7.753829     9.137629 
 H    -0.411695     8.782644     9.518655 
 H     0.033619     7.709628     8.152561 
 C    -1.874593     7.234919     9.076242 
 H    -2.339877     7.248155    10.071467 
 H    -1.897300     6.210172     8.682980 
 H    -2.472288     7.871913     8.407790 
Li     0.271753     4.959474     0.137306 
73
E (MM, N=2787) = -1236.503737
 C    -0.896744     4.907304     2.970807 
 O    -1.582321     6.059275     3.112885 
 O    -1.081593     4.193016     4.099019 
 O    -0.235394     4.574737     2.005616 
 C    -0.369352     2.928025     4.147097 
 H    -0.517361     2.504188     3.145276 
 H     0.699122     3.129660     4.304944 
 C    -0.924799     2.018678     5.226031 
 H    -0.758842     2.451333     6.221292 
 H    -0.416259     1.044167     5.186769 
 H    -2.001094     1.851469     5.081926 
 C    -2.389434     6.147559     4.317282 
 H    -2.865370     5.160833     4.388313 
 H    -1.723853     6.295689     5.178833 
 C    -3.417517     7.257716     4.216639 
 H    -4.055441     7.122206     3.332429 
 H    -2.925849     8.237550     4.157784 
 H    -4.059743     7.249558     5.109559 
 C    -3.966554     3.704435     6.762850 
 O    -3.745746     5.022059     6.942715 
 O    -3.850182     3.113640     7.968941 
 O    -4.222766     3.152182     5.709783 
 C    -4.179804     1.699223     7.992887 
 H    -3.299419     1.216070     7.549408 
 H    -4.285473     1.378479     9.038434 
 C    -5.437107     1.408494     7.196521 
 H    -6.309070     1.889081     7.659115 
 H    -5.616799     0.323641     7.171387 
 H    -5.337103     1.765006     6.162097 
 C    -3.583630     5.433012     8.326417 
 H    -4.372680     4.885296     8.858016 
 H    -2.600450     5.095735     8.682524 
 C    -3.742492     6.932995     8.482452 
 H    -4.713049     7.267219     8.090725 
 H    -2.940024     7.465009     7.954927 
 H    -3.689553     7.202025     9.547651 
 C     0.906700     3.075373    -3.224955 
 O     1.570315     3.767817    -4.172254 
 O     0.476352     1.932643    -3.796099 
 O     0.729475     3.417499    -2.071213 
 C    -0.278650     1.055380    -2.918500 
 H    -0.266588     0.088646    -3.438564 
 H     0.257241     0.963976    -1.963683 
 C    -1.693325     1.560679    -2.711374 
 H    -1.688144     2.521721    -2.180670 
 H    -2.259668     0.837830    -2.105921 
 H    -2.210193     1.684125    -3.673010 
 C     1.740369     3.070437    -5.435005 
 H     2.583047     3.588822    -5.910778 
 H     2.021229     2.028491    -5.228421 
 C     0.486459     3.146145    -6.284423 
 H     0.191616     4.190567    -6.455851 
 H    -0.342758     2.613914    -5.800267 
 H     0.672019     2.675591    -7.261139 
 C    -1.071168     7.432417    -1.372202 
 O    -1.066112     7.643300    -2.703646 
 O    -1.687925     8.488342    -0.804866 
 O    -0.606404     6.469869    -0.791622 
 C    -1.898983     8.377621     0.627961 
 H    -2.726563     9.071037     0.826641 
 H    -2.217179     7.351946     0.860237 
 C    -0.652878     8.758095     1.403843 
 H     0.160819     8.049036     1.202825 
 H    -0.867463     8.736780     2.482419 
 H    -0.320228     9.771153     1.138902 
 C    -0.634660     6.509246    -3.502124 
 H    -0.384818     6.952025    -4.475116 
 H     0.271766     6.083193    -3.050367 
 C    -1.730747     5.468771    -3.626772 
 H    -2.645294     5.911063    -4.045243 
 H    -1.960525     5.028215    -2.647798 
 H    -1.400391     4.661536    -4.296895 
Li     0.271753     4.959474     0.137306 
